<?xml version='1.0' encoding='utf-8'?>
<configuration>
    <input>
        <net-file value="aktif.net.xml" />
        
        <route-files value="aktif.rou.xml" />
    <additional-files value="aktif.add.xml" /></input>
</configuration>
